# $Id: Lshape2D2-p1.inp,v 1.1 2010-05-14 12:46:29 kmo Exp $

PATCHES 1
L-shape2D.g2

REFINE 1
# patch ru rv
  1     3  3

FIXPOINTS 4
# patch rx  ry  code
  1     0.5 0.0  2
  1     0.5 0.0  2
  1     0.5 1.0 12
  1     0.5 1.0 12

ANASOL Lshape 1.0 1.0e5 0.3

PRESSURE 3
# patch edge
  1     1
  1     2
  1     3

MATERIAL 1
# E     nu  rho patches
  1.0e5 0.3 0.0 1
