#PARTITIONING 5
#0 1 1
#1 2 2
#2 3 3
#3 4 4
#4 5 5

PATCHFILE backstep5.g2
NODEFILE  backstep5.gno
PROPERTYFILE       backstep-SA.prc

DIRICHLET 2
# code value
   1 0.001655
1001 0

TIME_STEPPING
# startTime stopTime dt
   0.0      70.0    0.001

VISUALIZATION
#format interval
1 10

LINEARSOLVER 8
type    = gmres
pc      = ilu
package = petsc
overlap = 1
atol   = 1.0e-10
rtol   = 1.0e-6
dtol   = 1.0e6
maxits = 1000
