# $Id: Line.inp,v 1.1 2010-09-07 07:54:58 kmo Exp $
# 1D Poisson problem.

PATCHES 1
line1D.g2

RAISEORDER 1
# patch ru
  1     2

REFINE 1
# patch ru
  1     7

CONSTRAINTS 1
# patch end code
  1     1   1

# Analytical solution
# Specifier L
ANASOL Line 2.0

EXNEUMANN 1
# patch end
  1     2

SOURCE Line 2.0
