# $Id: Lshape.inp,v 1.1 2010-05-27 11:39:39 echr Exp $
# 2D Cantilever beam with a tip shear load.

PATCHES 1
lshape2d.g2

#RAISEORDER 1
# patch ru rv
  1     1  1 

REFINE 1
# patch ru rv
  1     15 15
    

CONSTRAINTS 1
# patch edge code
  1     3    1

# Analytical solution
# Specifier     
ANASOL Lshape

EXNEUMANN 3
# patch edge 
  1     1  
  1     2  
  1     4  

MATERIAL 1
# patches kappa  
  1   1
