# $Id: Square.inp,v 1.2 2010-09-07 07:54:58 kmo Exp $
# 2D Poisson problem over a square domain.

PATCHES 1
square2D.g2

#RAISEORDER 1
# patch ru rv
#  1     9  9

REFINE 1
# patch ru rv
  1     7  7

CONSTRAINTS 1
# patch edge code
  1     4    1

# Analytical solution
# Specifier   L
ANASOL Square 2.0

EXNEUMANN 1
# patch edge
  1     3

SOURCE Square 2.0
